2024_89_CemigReconfigurationCases/1_AlimsCemig/AOR04/AOR04SegmentosMT.dss
new line.TR10692172 bus1=BMT172530519.1,bus2=BMT6954054B.1,Phases=1,Linecode=CAB202_3_1,Length=0.076540000,Units=km
new line.TR10692186 bus1=BMT6954054B.1,bus2=BMT6954061B.1,Phases=1,Linecode=CAB202_3_1,Length=0.030079000,Units=km
new line.TR10692193 bus1=BMT6954061B.1,bus2=BMT6954075B.1,Phases=1,Linecode=CAB202_3_1,Length=0.099032000,Units=km
new line.TR10692200 bus1=BMT6954075B.1,bus2=BMT6954082B.1,Phases=1,Linecode=CAB202_3_1,Length=0.183174000,Units=km
new line.TR10692207 bus1=BMT6954082B.1,bus2=BMT6954089B.1,Phases=1,Linecode=CAB202_3_1,Length=0.069302000,Units=km
new line.TR10692214 bus1=BMT6954089B.1,bus2=BMT172530523.1,Phases=1,Linecode=CAB202_3_1,Length=0.128123000,Units=km
new line.TR11277190 bus1=BMT167714929.1,bus2=BMT7489617B.1,Phases=1,Linecode=CAB202_3_1,Length=0.001414000,Units=km
new line.TR11277197 bus1=BMT7489617B.1,bus2=BMT170969957.1,Phases=1,Linecode=CAB202_3_1,Length=0.111336000,Units=km
new line.TR11791389 bus1=BMT169507107.1.2.3,bus2=BMT7959548B.1.2.3,Phases=3,Linecode=CAB202_3_3,Length=0.116708000,Units=km
new line.TR11791396 bus1=BMT7959548B.1.2.3,bus2=BMT169507110.1.2.3,Phases=3,Linecode=CAB202_3_3,Length=0.116085000,Units=km
new line.TR11791431 bus1=BMT169507112.1.2.3,bus2=BMT7959555B.1.2.3,Phases=3,Linecode=CAB202_3_3,Length=0.070225000,Units=km
new line.TR11791438 bus1=BMT7959555B.1.2.3,bus2=BMT169507114.1.2.3,Phases=3,Linecode=CAB202_3_3,Length=0.203968000,Units=km
new line.TR11794826 bus1=BMT169507121.1.2.3,bus2=BMT7960591B.1.2.3,Phases=3,Linecode=CAB202_3_3,Length=0.013927000,Units=km
new line.TR11794840 bus1=BMT7960591B.1.2.3,bus2=BMT169507124.1.2.3,Phases=3,Linecode=CAB202_3_3,Length=0.251048000,Units=km
new line.TR11794882 bus1=BMT169507125.1.2.3,bus2=BMT169507128.1.2.3,Phases=3,Linecode=CAB202_3_3,Length=0.107548000,Units=km
new line.TR11794889 bus1=BMT169507128.1.2.3,bus2=BMT7961116B.1.2.3,Phases=3,Linecode=CAB202_3_3,Length=0.141040000,Units=km
new line.TR11794896 bus1=BMT7961116B.1.2.3,bus2=BMT167715094.1.2.3,Phases=3,Linecode=CAB202_3_3,Length=0.113825000,Units=km
new line.TR11795134 bus1=BMT169507130.1.2.3,bus2=BMT7961123B.1.2.3,Phases=3,Linecode=CAB202_3_3,Length=0.072825000,Units=km
new line.TR11795141 bus1=BMT7961123B.1.2.3,bus2=BMT7961130B.1.2.3,Phases=3,Linecode=CAB202_3_3,Length=0.127175000,Units=km
new line.TR11795148 bus1=BMT7961130B.1.2.3,bus2=BMT167715097.1.2.3,Phases=3,Linecode=CAB202_3_3,Length=0.096868000,Units=km
new line.TR11795456 bus1=BMT169507133.1.2.3,bus2=BMT7961158B.1.2.3,Phases=3,Linecode=CAB202_3_3,Length=0.116091000,Units=km
new line.TR11795463 bus1=BMT7961158B.1.2.3,bus2=BMT169507137.1.2.3,Phases=3,Linecode=CAB202_3_3,Length=0.159178000,Units=km
new line.TR11795883 bus1=BMT169507141.2,bus2=BMT169507142.2,Phases=1,Linecode=CAB202_3_1,Length=0.134164000,Units=km
new line.TR11795925 bus1=BMT169507141.1.2.3,bus2=BMT169507143.1.2.3,Phases=3,Linecode=CAB202_3_3,Length=0.105176000,Units=km
new line.TR11795932 bus1=BMT169507143.1.2.3,bus2=BMT7962544B.1.2.3,Phases=3,Linecode=CAB202_3_3,Length=0.064837000,Units=km
new line.TR11795939 bus1=BMT7962544B.1.2.3,bus2=BMT7962551B.1.2.3,Phases=3,Linecode=CAB202_3_3,Length=0.194511000,Units=km
new line.TR11795946 bus1=BMT7962551B.1.2.3,bus2=BMT7962558B.1.2.3,Phases=3,Linecode=CAB202_3_3,Length=0.092123000,Units=km
new line.TR11795953 bus1=BMT7962558B.1.2.3,bus2=BMT7962565B.1.2.3,Phases=3,Linecode=CAB202_3_3,Length=0.064876000,Units=km
new line.TR11795967 bus1=BMT7962565B.1.2.3,bus2=BMT169507144.1.2.3,Phases=3,Linecode=CAB202_3_3,Length=0.069345000,Units=km
new line.TR11795974 bus1=BMT169507144.1.2.3,bus2=BMT7962572B.1.2.3,Phases=3,Linecode=CAB202_3_3,Length=0.096755000,Units=km
new line.TR11795981 bus1=BMT7962572B.1.2.3,bus2=BMT7962579B.1.2.3,Phases=3,Linecode=CAB202_3_3,Length=0.134748000,Units=km
new line.TR11795988 bus1=BMT7962579B.1.2.3,bus2=BMT7962586B.1.2.3,Phases=3,Linecode=CAB202_3_3,Length=0.099188000,Units=km
new line.TR11796009 bus1=BMT7962586B.1.2.3,bus2=BMT169507147.1.2.3,Phases=3,Linecode=CAB202_3_3,Length=0.093950000,Units=km
new line.TR11796541 bus1=BMT169507143.2,bus2=BMT169507145.2,Phases=1,Linecode=CAB202_3_1,Length=0.170461000,Units=km
new line.TR11796954 bus1=BMT169507147.1.2.3,bus2=BMT7962593B.1.2.3,Phases=3,Linecode=CAB202_3_3,Length=0.107823000,Units=km
new line.TR11796961 bus1=BMT7962593B.1.2.3,bus2=BMT169507149.1.2.3,Phases=3,Linecode=CAB202_3_3,Length=0.103311000,Units=km
new line.TR11797031 bus1=BMT2502201B.1,bus2=BMT7962600B.1,Phases=1,Linecode=CAB202_3_1,Length=0.084422000,Units=km
new line.TR11797052 bus1=BMT7962600B.1,bus2=BMT169507150.1,Phases=1,Linecode=CAB202_3_1,Length=0.193284000,Units=km
new line.TR11797255 bus1=BMT2502236B.1.2.3,bus2=BMT7963979B.1.2.3,Phases=3,Linecode=CAB202_3_3,Length=0.072991000,Units=km
new line.TR11797339 bus1=BMT7963979B.1.2.3,bus2=BMT7964007B.1.2.3,Phases=3,Linecode=CAB202_3_3,Length=0.046866000,Units=km
new line.TR11797346 bus1=BMT7964007B.1.2.3,bus2=BMT7964014B.1.2.3,Phases=3,Linecode=CAB202_3_3,Length=0.043180000,Units=km
new line.TR11797353 bus1=BMT7964014B.1.2.3,bus2=BMT7964021B.1.2.3,Phases=3,Linecode=CAB202_3_3,Length=0.276768000,Units=km
new line.TR11797360 bus1=BMT7964021B.1.2.3,bus2=BMT7964028B.1.2.3,Phases=3,Linecode=CAB202_3_3,Length=0.119421000,Units=km
new line.TR11797367 bus1=BMT7964028B.1.2.3,bus2=BMT2502243B.1.2.3,Phases=3,Linecode=CAB202_3_3,Length=0.120205000,Units=km
new line.TR11797423 bus1=BMT167715128.1.2.3,bus2=BMT7964035B.1.2.3,Phases=3,Linecode=CAB202_3_3,Length=0.129613000,Units=km
new line.TR11797430 bus1=BMT7964035B.1.2.3,bus2=BMT167715130.1.2.3,Phases=3,Linecode=CAB202_3_3,Length=0.187499000,Units=km
new line.TR11797605 bus1=BMT167715130.1.2.3,bus2=BMT7964042B.1.2.3,Phases=3,Linecode=CAB202_3_3,Length=0.326296000,Units=km
new line.TR11797619 bus1=BMT7964042B.1.2.3,bus2=BMT7964056B.1.2.3,Phases=3,Linecode=CAB202_3_3,Length=0.125467000,Units=km
new line.TR11797626 bus1=BMT7964056B.1.2.3,bus2=BMT167715132.1.2.3,Phases=3,Linecode=CAB202_3_3,Length=0.138906000,Units=km
new line.TR11797850 bus1=BMT5645859B.3,bus2=BMT7964378B.3,Phases=1,Linecode=CAB202_3_1,Length=0.032196000,Units=km
new line.TR11797857 bus1=BMT7964378B.3,bus2=BMT2505470B.3,Phases=1,Linecode=CAB202_3_1,Length=0.065178000,Units=km
new line.TR12392107 bus1=BMT171724129.1.2.3,bus2=BMT5648106B.1.2.3,Phases=3,Linecode=CABA06_3_3,Length=0.037477000,Units=km
new line.TR12392118 bus1=BMT5648106B.1.2.3,bus2=BMT171724131.1.2.3,Phases=3,Linecode=CABA06_3_3,Length=0.026903000,Units=km
new line.TR12392312 bus1=BMT167715833.2,bus2=BMT167715835.2,Phases=1,Linecode=CAB202_3_1,Length=0.142601000,Units=km
new line.TR12392773 bus1=BMT167714222.1,bus2=BMT8998640B.1,Phases=1,Linecode=CAB202_3_1,Length=0.170463000,Units=km
new line.TR10033955 bus1=BMT167714876.1,bus2=BMT6041765B.1,Phases=1,Linecode=CAB202_3_1,Length=0.126184000,Units=km
new line.TR10033969 bus1=BMT6041765B.1,bus2=BMT6041772B.1,Phases=1,Linecode=CAB202_3_1,Length=0.044991000,Units=km
new line.TR10033976 bus1=BMT6041772B.1,bus2=BMT6041779B.1,Phases=1,Linecode=CAB202_3_1,Length=0.073484000,Units=km
new line.TR10033983 bus1=BMT6041779B.1,bus2=BMT6041786B.1,Phases=1,Linecode=CAB202_3_1,Length=0.083846000,Units=km
new line.TR10033990 bus1=BMT6041786B.1,bus2=BMT6041793B.1,Phases=1,Linecode=CAB202_3_1,Length=0.068397000,Units=km
new line.TR10033997 bus1=BMT6041793B.1,bus2=BMT6041807B.1,Phases=1,Linecode=CAB202_3_1,Length=0.374148000,Units=km
new line.TR10034018 bus1=BMT6041807B.1,bus2=BMT167714877.1,Phases=1,Linecode=CAB202_3_1,Length=0.052382000,Units=km
new line.TR10034025 bus1=BMT167714877.1,bus2=BMT167714879.1,Phases=1,Linecode=CAB202_3_1,Length=0.322881000,Units=km
new line.TR10034032 bus1=BMT167714877.1,bus2=BMT6546129B.1,Phases=1,Linecode=CAB202_3_1,Length=0.184964000,Units=km
new line.TR10196509 bus1=BMT172398435.1,bus2=BMT172398436.1,Phases=1,Linecode=CAB103_3_1,Length=0.054998000,Units=km
new line.TR10198567 bus1=BMT6356926B.3,bus2=BMT168952475.3,Phases=1,Linecode=CAB202_3_1,Length=0.062290000,Units=km
new line.TR10611231 bus1=BMT167714885.1,bus2=BMT167714886.1,Phases=1,Linecode=CAB202_3_1,Length=0.088073000,Units=km
new line.TR10611238 bus1=BMT167714886.1,bus2=BMT6874219B.1,Phases=1,Linecode=CAB202_3_1,Length=0.138265000,Units=km
new line.TR10611245 bus1=BMT6874219B.1,bus2=BMT167714887.1,Phases=1,Linecode=CAB202_3_1,Length=0.136866000,Units=km
new line.TR10611252 bus1=BMT167714886.1,bus2=BMT167714888.1,Phases=1,Linecode=CAB103_3_1,Length=0.050210000,Units=km
new line.TR11117618 bus1=BMT167715904.1,bus2=BMT167715906.1,Phases=1,Linecode=CAB103_3_1,Length=0.043166000,Units=km
new line.TR11135552 bus1=BMT167715671.1,bus2=BMT7354958B.1,Phases=1,Linecode=CAB202_3_1,Length=0.123863000,Units=km
new line.TR11135559 bus1=BMT7354958B.1,bus2=BMT7354965B.1,Phases=1,Linecode=CAB202_3_1,Length=0.409537000,Units=km
new line.TR11135566 bus1=BMT7354965B.1,bus2=BMT7358094B.1,Phases=1,Linecode=CAB202_3_1,Length=0.032753000,Units=km
new line.TR11135573 bus1=BMT7358094B.1,bus2=BMT167715673.1,Phases=1,Linecode=CAB202_3_1,Length=0.206143000,Units=km
new line.TR11704449 bus1=BMT171724132.1.2.3,bus2=BMT3547315B.1.2.3,Phases=3,Linecode=CABA06_3_3,Length=0.028995000,Units=km
new line.TR11705716 bus1=BMT3547315B.1.2.3,bus2=BMT7890535B.1.2.3,Phases=3,Linecode=CABA06_3_3,Length=0.011660000,Units=km
new line.TR11705723 bus1=BMT7890535B.1.2.3,bus2=BMT3547322B.1.2.3,Phases=3,Linecode=CABA06_3_3,Length=0.015650000,Units=km
new line.TR11705814 bus1=BMT3547322B.1.2.3,bus2=BMT3547343B.1.2.3,Phases=3,Linecode=CABA06_3_3,Length=0.039439000,Units=km
new line.TR11705842 bus1=BMT3547343B.1.2.3,bus2=BMT171724133.1.2.3,Phases=3,Linecode=CABA06_3_3,Length=0.034979000,Units=km
new line.TR11708579 bus1=BMT7849508B.1.2.3,bus2=BMT1137579B.1.2.3,Phases=3,Linecode=CAB102_3_3,Length=0.005385000,Units=km
new line.TR12141874 bus1=BMT2503783B.1,bus2=BMT8735876B.1,Phases=1,Linecode=CAB202_3_1,Length=0.033238000,Units=km
new line.TR12141875 bus1=BMT5600709B.1,bus2=BMT8735876B.1,Phases=1,Linecode=CAB202_3_1,Length=0.035224000,Units=km
new line.TR12254757 bus1=BMT167714223.1.2.3,bus2=BMT8856401B.1.2.3,Phases=3,Linecode=CAB202_3_3,Length=0.174069000,Units=km
new line.TR12254759 bus1=BMT8856401B.1.2.3,bus2=BMT167714226.1.2.3,Phases=3,Linecode=CAB202_3_3,Length=0.184664000,Units=km
new line.TR12255909 bus1=BMT5614310B.1.2.3,bus2=BMT167714202.1.2.3,Phases=3,Linecode=CABA08_3_3,Length=0.044590000,Units=km
new line.TR12477310 bus1=BMT171724127.1.2.3,bus2=BMT9087139B.1.2.3,Phases=3,Linecode=CAB104_3_3,Length=0.008061000,Units=km
new line.TR12549265 bus1=BMT1141114B.1.2.3,bus2=BMT167716033.1.2.3,Phases=3,Linecode=CAB104_3_3,Length=0.013151000,Units=km
new line.TR12549266 bus1=BMT167716033.1.2.3,bus2=BMT1141128B.1.2.3,Phases=3,Linecode=CAB104_3_3,Length=0.021374000,Units=km
new line.TR12549269 bus1=BMT167716162.1.2.3,bus2=BMT167716163.1.2.3,Phases=3,Linecode=CAB103_3_3,Length=0.039198000,Units=km
new line.TR12586621 bus1=BMT167714568.3,bus2=BMT167714570.3,Phases=1,Linecode=CAB103_3_1,Length=0.047990000,Units=km
new line.TR12586974 bus1=BMT167715933.1,bus2=BMT167715934.1,Phases=1,Linecode=CAB103_3_1,Length=0.086316000,Units=km
new line.TR12586975 bus1=BMT167715934.1,bus2=BMT9195581B.1,Phases=1,Linecode=CAB202_3_1,Length=0.180368000,Units=km
new line.TR12586976 bus1=BMT9195581B.1,bus2=BMT9195579B.1,Phases=1,Linecode=CAB202_3_1,Length=0.154802000,Units=km
new line.TR12586977 bus1=BMT9195579B.1,bus2=BMT9195582B.1,Phases=1,Linecode=CAB202_3_1,Length=0.154090000,Units=km
new line.TR12586978 bus1=BMT9195582B.1,bus2=BMT9195584B.1,Phases=1,Linecode=CAB202_3_1,Length=0.206363000,Units=km
new line.TR12586979 bus1=BMT9195584B.1,bus2=BMT9195585B.1,Phases=1,Linecode=CAB202_3_1,Length=0.169159000,Units=km
new line.TR12586980 bus1=BMT9195585B.1,bus2=BMT167715935.1,Phases=1,Linecode=CAB202_3_1,Length=0.194145000,Units=km
new line.TR12587165 bus1=BMT170668797.1,bus2=BMT170668799.1,Phases=1,Linecode=CAB202_3_1,Length=0.123462000,Units=km
new line.TR12587166 bus1=BMT170668799.1,bus2=BMT5647266B.1,Phases=1,Linecode=CAB202_3_1,Length=0.049324000,Units=km
new line.TR12587174 bus1=BMT170668882.1,bus2=BMT170668883.1,Phases=1,Linecode=CAB202_3_1,Length=0.161965000,Units=km
new line.TR12587176 bus1=BMT170668883.1,bus2=BMT9195796B.1,Phases=1,Linecode=CAB202_3_1,Length=0.187071000,Units=km
new line.TR12587178 bus1=BMT9195796B.1,bus2=BMT170668884.1,Phases=1,Linecode=CAB202_3_1,Length=0.136793000,Units=km
new line.TR12659851 bus1=BMT168377629.1,bus2=BMT168377631.1,Phases=1,Linecode=CAB202_3_1,Length=0.194377000,Units=km
new line.TR12660961 bus1=BMT6536420B.3,bus2=BMT168440245.3,Phases=1,Linecode=CAB202_3_1,Length=0.252064000,Units=km
new line.TR12660962 bus1=BMT168440245.3,bus2=BMT168440246.3,Phases=1,Linecode=CAB202_3_1,Length=0.024347000,Units=km
new line.TR12660967 bus1=BMT168440245.3,bus2=BMT9271418B.3,Phases=1,Linecode=CAB202_3_1,Length=0.042051000,Units=km
new line.TR12660968 bus1=BMT9271418B.3,bus2=BMT9271419B.3,Phases=1,Linecode=CAB202_3_1,Length=0.048043000,Units=km
new line.TR12660969 bus1=BMT9271419B.3,bus2=BMT9271420B.3,Phases=1,Linecode=CAB202_3_1,Length=0.401368000,Units=km
new line.TR12660970 bus1=BMT9271420B.3,bus2=BMT9271421B.3,Phases=1,Linecode=CAB202_3_1,Length=0.062956000,Units=km
new line.TR12660971 bus1=BMT9271421B.3,bus2=BMT168440247.3,Phases=1,Linecode=CAB202_3_1,Length=0.056707000,Units=km
new line.TR10012542 bus1=BMT167715304.3,bus2=BMT5633434B.3,Phases=1,Linecode=CAB202_3_1,Length=0.044592000,Units=km
new line.TR10012549 bus1=BMT167715304.3,bus2=BMT167715306.3,Phases=1,Linecode=CAB202_3_1,Length=0.158737000,Units=km
new line.TR10313045 bus1=BMT6541803B.1,bus2=BMT6541810B.1,Phases=1,Linecode=CAB202_3_1,Length=0.403073000,Units=km
new line.TR10313052 bus1=BMT6541810B.1,bus2=BMT6541817B.1,Phases=1,Linecode=CAB202_3_1,Length=0.108487000,Units=km
new line.TR10313059 bus1=BMT6541817B.1,bus2=BMT167715743.1,Phases=1,Linecode=CAB202_3_1,Length=0.195135000,Units=km
new line.TR10313521 bus1=BMT6542510B.1,bus2=BMT6542517B.1,Phases=1,Linecode=CAB202_3_1,Length=0.216495000,Units=km
new line.TR10313528 bus1=BMT6542517B.1,bus2=BMT167714868.1,Phases=1,Linecode=CAB202_3_1,Length=0.163636000,Units=km
new line.TR10313542 bus1=BMT6542545B.1,bus2=BMT167714593.1,Phases=1,Linecode=CAB202_3_1,Length=0.116474000,Units=km
new line.TR10315908 bus1=BMT6546129B.1,bus2=BMT6546136B.1,Phases=1,Linecode=CAB202_3_1,Length=0.095028000,Units=km
new line.TR10315915 bus1=BMT6546136B.1,bus2=BMT167714880.1,Phases=1,Linecode=CAB202_3_1,Length=0.049082000,Units=km
new line.TR11160808 bus1=BMT167715172.2,bus2=BMT167715174.2,Phases=1,Linecode=CAB202_3_1,Length=0.229025000,Units=km
new line.TR11162117 bus1=BMT167715460.2,bus2=BMT167715462.2,Phases=1,Linecode=CAB103_3_1,Length=0.029728000,Units=km
new line.TR11170748 bus1=BMT167715858.1,bus2=BMT167715860.1,Phases=1,Linecode=CAB202_3_1,Length=0.091384000,Units=km
new line.TR11179239 bus1=BMT167714446.3,bus2=BMT167714447.3,Phases=1,Linecode=CAB202_3_1,Length=0.230258000,Units=km
new line.TR11179246 bus1=BMT167714447.3,bus2=BMT167714448.3,Phases=1,Linecode=CAB202_3_1,Length=0.013926000,Units=km
new line.TR11179253 bus1=BMT167714447.3,bus2=BMT167714449.3,Phases=1,Linecode=CAB202_3_1,Length=0.216053000,Units=km
new line.TR11179463 bus1=BMT167715426.1,bus2=BMT167715429.1,Phases=1,Linecode=CAB202_3_1,Length=0.091826000,Units=km
new line.TR11179477 bus1=BMT167715425.1,bus2=BMT167715427.1,Phases=1,Linecode=CAB202_3_1,Length=0.092994000,Units=km
new line.TR11343487 bus1=BMT167716127.1.2.3,bus2=BMT167716130.1.2.3,Phases=3,Linecode=CAB103_3_3,Length=0.056347000,Units=km
new line.TR11343494 bus1=BMT167716130.1.2.3,bus2=BMT7544371B.1.2.3,Phases=3,Linecode=CABA06_3_3,Length=0.037584000,Units=km
new line.TR11343501 bus1=BMT7544371B.1.2.3,bus2=BMT7544378B.1.2.3,Phases=3,Linecode=CABA06_3_3,Length=0.039440000,Units=km
new line.TR11343508 bus1=BMT7544378B.1.2.3,bus2=BMT7544385B.1.2.3,Phases=3,Linecode=CABA06_3_3,Length=0.038943000,Units=km
new line.TR11343515 bus1=BMT7544385B.1.2.3,bus2=BMT167716131.1.2.3,Phases=3,Linecode=CABA06_3_3,Length=0.039440000,Units=km
new line.TR11344040 bus1=BMT167716130.1.2.3,bus2=BMT167716132.1.2.3,Phases=3,Linecode=CAB103_3_3,Length=0.021092000,Units=km
new line.TR11360749 bus1=BMT167714214.1.2.3,bus2=BMT167714215.1.2.3,Phases=3,Linecode=CABA08_3_3,Length=0.007070000,Units=km
new line.TR11360756 bus1=BMT167714215.1.2.3,bus2=BMT2477064B.1.2.3,Phases=3,Linecode=CAB202_3_3,Length=0.072167000,Units=km
new line.TR11531500 bus1=BMT1138279B.1.2.3,bus2=BMT167715985.1.2.3,Phases=3,Linecode=CAB104_3_3,Length=0.011044000,Units=km
new line.TR11531507 bus1=BMT1138286B.1.2.3,bus2=BMT167715988.1.2.3,Phases=3,Linecode=CAB104_3_3,Length=0.019023000,Units=km
new line.TR11543582 bus1=BMT167715984.1.2.3,bus2=BMT7752572B.1.2.3,Phases=3,Linecode=CABA06_3_3,Length=0.005099000,Units=km
new line.TR11543589 bus1=BMT7752572B.1.2.3,bus2=BMT1138188B.1.2.3,Phases=3,Linecode=CABA06_3_3,Length=0.035729000,Units=km
new line.TR11543596 bus1=BMT1138188B.1.2.3,bus2=BMT1138202B.1.2.3,Phases=3,Linecode=CABA06_3_3,Length=0.022800000,Units=km
new line.TR11543603 bus1=BMT1138202B.1.2.3,bus2=BMT1138195B.1.2.3,Phases=3,Linecode=CABA06_3_3,Length=0.011998000,Units=km
new line.TR11543610 bus1=BMT1138195B.1.2.3,bus2=BMT167715986.1.2.3,Phases=3,Linecode=CABA06_3_3,Length=0.024327000,Units=km
new line.TR12663695 bus1=BMT168515661.1,bus2=BMT168515663.1,Phases=1,Linecode=CAB103_3_1,Length=0.019847000,Units=km
new line.TR12664311 bus1=BMT167715331.2,bus2=BMT168536077.2,Phases=1,Linecode=CAB202_3_1,Length=0.108449000,Units=km
new line.TR12664312 bus1=BMT168536077.2,bus2=BMT168536078.2,Phases=1,Linecode=CAB202_3_1,Length=0.290210000,Units=km
new line.TR12664315 bus1=BMT168536077.2,bus2=BMT9274347B.2,Phases=1,Linecode=CAB103_3_1,Length=0.034406000,Units=km
new line.TR12664316 bus1=BMT9274347B.2,bus2=BMT168536079.2,Phases=1,Linecode=CAB103_3_1,Length=0.059163000,Units=km
new line.TR12698160 bus1=BMT169655587.1,bus2=BMT169655590.1,Phases=1,Linecode=CAB202_3_1,Length=0.254839000,Units=km
new line.TR12698161 bus1=BMT169655590.1,bus2=BMT169655591.1,Phases=1,Linecode=CAB202_3_1,Length=0.030474000,Units=km
new line.TR12698164 bus1=BMT169655590.1,bus2=BMT169655592.1,Phases=1,Linecode=CAB103_3_1,Length=0.067463000,Units=km
new line.TR12732006 bus1=BMT170755451.1,bus2=BMT170755453.1,Phases=1,Linecode=CAB202_3_1,Length=0.146728000,Units=km
new line.TR12732007 bus1=BMT170755453.1,bus2=BMT4685207B.1,Phases=1,Linecode=CAB202_3_1,Length=0.066927000,Units=km
new line.TR12732010 bus1=BMT170755453.1,bus2=BMT170755454.1,Phases=1,Linecode=CAB103_3_1,Length=0.013599000,Units=km
new line.TR12733405 bus1=BMT170812623.1,bus2=BMT9340658B.1,Phases=1,Linecode=CAB103_3_1,Length=0.028859000,Units=km
new line.TR12733406 bus1=BMT9340658B.1,bus2=BMT170812625.1,Phases=1,Linecode=CAB103_3_1,Length=0.058688000,Units=km
new line.TR12735303 bus1=BMT172652205.1,bus2=BMT172652209.1,Phases=1,Linecode=CAB103_3_1,Length=0.048364000,Units=km
new line.TR12735304 bus1=BMT172652209.1,bus2=BMT172652210.1,Phases=1,Linecode=CAB102_3_1,Length=0.247115000,Units=km
new line.TR12804192 bus1=BMT9385981B.3,bus2=BMT173260585.3,Phases=1,Linecode=CAB202_3_1,Length=0.202027000,Units=km
new line.TR12804193 bus1=BMT173260585.3,bus2=BMT9385982B.3,Phases=1,Linecode=CAB202_3_1,Length=0.023343000,Units=km
new line.TR12804195 bus1=BMT173260585.3,bus2=BMT173260588.3,Phases=1,Linecode=CAB103_3_1,Length=0.016761000,Units=km
new line.TR1731150 bus1=BMT167716054.1.2.3,bus2=BMT1144509B.1.2.3,Phases=3,Linecode=CAB104_3_3,Length=0.004000000,Units=km
new line.TR1731157 bus1=BMT167716054.1.2.3,bus2=BMT167716058.1.2.3,Phases=3,Linecode=CAB104_3_3,Length=0.025314000,Units=km
new line.TR1731171 bus1=BMT1144523B.1.2.3,bus2=BMT167716056.1.2.3,Phases=3,Linecode=CAB104_3_3,Length=0.024996000,Units=km
new line.TR1731178 bus1=BMT167716057.1.2.3,bus2=BMT167716063.1.2.3,Phases=3,Linecode=CAB102_3_3,Length=0.030589000,Units=km
new line.TR12392774 bus1=BMT8998640B.1,bus2=BMT8998637B.1,Phases=1,Linecode=CAB202_3_1,Length=0.132171000,Units=km
new line.TR12392775 bus1=BMT8998637B.1,bus2=BMT8998641B.1,Phases=1,Linecode=CAB202_3_1,Length=0.102440000,Units=km
new line.TR12392776 bus1=BMT8998641B.1,bus2=BMT167714224.1,Phases=1,Linecode=CAB202_3_1,Length=0.093603000,Units=km
new line.TR12393514 bus1=BMT171724151.1.2.3,bus2=BMT3547511B.1.2.3,Phases=3,Linecode=CABA06_3_3,Length=0.037477000,Units=km
new line.TR12393534 bus1=BMT3547511B.1.2.3,bus2=BMT171724153.1.2.3,Phases=3,Linecode=CABA06_3_3,Length=0.022624000,Units=km
new line.TR12503432 bus1=BMT167715878.1,bus2=BMT167715896.1,Phases=1,Linecode=CAB202_3_1,Length=0.032010000,Units=km
new line.TR12503433 bus1=BMT167715896.1,bus2=BMT167715897.1,Phases=1,Linecode=CAB202_3_1,Length=0.267608000,Units=km
new line.TR12503434 bus1=BMT167715896.1,bus2=BMT167715898.1,Phases=1,Linecode=CAB103_3_1,Length=0.047699000,Units=km
new line.TR12614603 bus1=BMT167715680.1,bus2=BMT9223956B.1,Phases=1,Linecode=CAB202_3_1,Length=0.126545000,Units=km
new line.TR12614604 bus1=BMT9223956B.1,bus2=BMT167715683.1,Phases=1,Linecode=CAB202_3_1,Length=0.135307000,Units=km
new line.TR12716382 bus1=BMT172652205.1,bus2=BMT172652208.1,Phases=1,Linecode=CAB202_3_1,Length=0.148376000,Units=km
new line.TR12785868 bus1=BMT173260583.3,bus2=BMT173260586.3,Phases=1,Linecode=CAB103_3_1,Length=0.028789000,Units=km
new line.TR12787758 bus1=BMT172797415.1,bus2=BMT172797416.1,Phases=1,Linecode=CAB202_3_1,Length=0.085356000,Units=km
new line.TR12787759 bus1=BMT172797416.1,bus2=BMT8724803B.1,Phases=1,Linecode=CAB202_3_1,Length=0.043671000,Units=km
new line.TR12787760 bus1=BMT172797416.1,bus2=BMT172797418.1,Phases=1,Linecode=CAB202_3_1,Length=0.008245000,Units=km
new line.TR1720930 bus1=BMT167716183.1.2.3,bus2=BMT1137551B.1.2.3,Phases=3,Linecode=CAB102_3_3,Length=0.031885000,Units=km
new line.TR1720937 bus1=BMT167715979.1.2.3,bus2=BMT1137698B.1.2.3,Phases=3,Linecode=CAB104_3_3,Length=0.024203000,Units=km
new line.TR1720958 bus1=BMT1137551B.1.2.3,bus2=BMT167716184.1.2.3,Phases=3,Linecode=CAB102_3_3,Length=0.028995000,Units=km
new line.TR1721070 bus1=BMT1137698B.1.2.3,bus2=BMT1137705B.1.2.3,Phases=3,Linecode=CAB104_3_3,Length=0.024409000,Units=km
new line.TR1721077 bus1=BMT1137705B.1.2.3,bus2=BMT167715980.1.2.3,Phases=3,Linecode=CAB104_3_3,Length=0.030801000,Units=km
new line.TR1721091 bus1=BMT167715980.1.2.3,bus2=BMT1137733B.1.2.3,Phases=3,Linecode=CAB104_3_3,Length=0.042194000,Units=km
new line.TR1721112 bus1=BMT1137733B.1.2.3,bus2=BMT1137740B.1.2.3,Phases=3,Linecode=CAB104_3_3,Length=0.035222000,Units=km
new line.TR1721133 bus1=BMT1137740B.1.2.3,bus2=BMT167715981.1.2.3,Phases=3,Linecode=CAB104_3_3,Length=0.029406000,Units=km
new line.TR1721154 bus1=BMT167715982.1.2.3,bus2=BMT1137838B.1.2.3,Phases=3,Linecode=CAB104_3_3,Length=0.023597000,Units=km
new line.TR1721280 bus1=BMT1137838B.1.2.3,bus2=BMT1137845B.1.2.3,Phases=3,Linecode=CAB104_3_3,Length=0.030227000,Units=km
new line.TR1721294 bus1=BMT1137845B.1.2.3,bus2=BMT167715983.1.2.3,Phases=3,Linecode=CAB104_3_3,Length=0.022800000,Units=km
new line.TR1721308 bus1=BMT167715983.1.2.3,bus2=BMT1137859B.1.2.3,Phases=3,Linecode=CAB104_3_3,Length=0.029115000,Units=km
new line.TR1721322 bus1=BMT1137859B.1.2.3,bus2=BMT1137866B.1.2.3,Phases=3,Linecode=CAB104_3_3,Length=0.027888000,Units=km
new line.TR1721336 bus1=BMT1137866B.1.2.3,bus2=BMT1137873B.1.2.3,Phases=3,Linecode=CAB104_3_3,Length=0.024734000,Units=km
new line.TR1721350 bus1=BMT1137873B.1.2.3,bus2=BMT167715984.1.2.3,Phases=3,Linecode=CAB104_3_3,Length=0.009486000,Units=km
new line.TR1721364 bus1=BMT1137880B.1.2.3,bus2=BMT1138279B.1.2.3,Phases=3,Linecode=CAB104_3_3,Length=0.033055000,Units=km
new line.TR1721399 bus1=BMT1137943B.1,bus2=BMT167716182.1,Phases=1,Linecode=CAB103_3_1,Length=0.034980000,Units=km
new line.TR1721413 bus1=BMT1137950B.1,bus2=BMT1137943B.1,Phases=1,Linecode=CAB103_3_1,Length=0.041586000,Units=km
new line.TR1721840 bus1=BMT167716181.1,bus2=BMT1137950B.1,Phases=1,Linecode=CAB103_3_1,Length=0.035434000,Units=km
...
