2024_89_CemigReconfigurationCases/1_AlimsCemig/AOR04/AOR04ChavesMT.dss
new line.CTR140393 bus1=BMT167715804.3,bus2=BMT167715816.3,Phases=1,LineCode=tieSwitch1,Length=0.001,Units=km,switch=T !numEQ 117048
new line.CTR20665 bus1=BMT167714422.3,bus2=BMT167714528.3,Phases=1,LineCode=tieSwitch1,Length=0.001,Units=km,switch=T !numEQ 16900
new line.CTR20805 bus1=BMT167714501.1,bus2=BMT170668796.1,Phases=1,LineCode=tieSwitch1,Length=0.001,Units=km,switch=T !numEQ 79100
new line.CTR23199 bus1=BMT167714921.1,bus2=BMT167714925.1,Phases=1,LineCode=tieSwitch1,Length=0.001,Units=km,switch=T !numEQ 141147
new line.CTR233430 bus1=BMT167715316.1,bus2=BMT167715422.1,Phases=1,LineCode=tieSwitch1,Length=0.001,Units=km,switch=T !numEQ 49720
new line.CTR281093 bus1=BMT167714411.1.2.3,bus2=BMT167714617.1.2.3,Phases=3,LineCode=tieSwitch,Length=0.001,Units=km,switch=T !numEQ 13411
new line.CTR281135 bus1=BMT167715627.1,bus2=BMT170812622.1,Phases=1,LineCode=tieSwitch1,Length=0.001,Units=km,switch=T !numEQ 13424
new line.CTR281149 bus1=BMT167714358.1.2.3,bus2=BMT167714359.1.2.3,Phases=3,LineCode=tieSwitch,Length=0.001,Units=km,switch=T !numEQ 13431
new line.CTR393373 bus1=BMT167714848.1,bus2=BMT167714869.1,Phases=1,LineCode=tieSwitch1,Length=0.001,Units=km,switch=T !numEQ 14809
new line.CTR393457 bus1=BMT167714309.1.2.3,bus2=BMT167714310.1.2.3,Phases=3,LineCode=tieSwitch,Length=0.001,Units=km,switch=T !numEQ 133238
new line.CTR393492 bus1=BMT167715094.3,bus2=BMT167715475.3,Phases=1,LineCode=tieSwitch1,Length=0.001,Units=km,switch=T !numEQ 14888
new line.CTR393646 bus1=BMT167714194.1.2.3,bus2=BMT3120756.1.2.3,Phases=3,LineCode=tieSwitch,Length=0.001,Units=km,switch=T !numEQ 15004
open line.CTR393646 term=1
new line.CTR393653 bus1=BMT167714195.1.2.3,bus2=BMT167714196.1.2.3,Phases=3,LineCode=tieSwitch,Length=0.001,Units=km,switch=T !numEQ 15006
new line.CTR393660 bus1=BMT167714202.1.2.3,bus2=BMT167714212.1.2.3,Phases=3,LineCode=tieSwitch,Length=0.001,Units=km,switch=T !numEQ 15008
new line.CTR395627 bus1=BMT167715947.1.2.3,bus2=BMT171724124.1.2.3,Phases=3,LineCode=tieSwitch,Length=0.001,Units=km,switch=T !numEQ 16201
new line.CTR395634 bus1=BMT167715990.1.2.3,bus2=BMT167715991.1.2.3,Phases=3,LineCode=tieSwitch,Length=0.001,Units=km,switch=T !numEQ 16204
new line.CTR395641 bus1=BMT167715999.1.2.3,bus2=BMT167716000.1.2.3,Phases=3,LineCode=tieSwitch,Length=0.001,Units=km,switch=T !numEQ 16206
new line.CTR395648 bus1=BMT167716009.1.2.3,bus2=BMT167716010.1.2.3,Phases=3,LineCode=tieSwitch,Length=0.001,Units=km,switch=T !numEQ 16208
new line.CTR395662 bus1=BMT167716021.1.2.3,bus2=BMT167716022.1.2.3,Phases=3,LineCode=tieSwitch,Length=0.001,Units=km,switch=T !numEQ 16212
new line.CTR395669 bus1=BMT167716049.1.2.3,bus2=BMT167716050.1.2.3,Phases=3,LineCode=tieSwitch,Length=0.001,Units=km,switch=T !numEQ 16215
new line.CTR395676 bus1=BMT167716088.1.2.3,bus2=BMT167716098.1.2.3,Phases=3,LineCode=tieSwitch,Length=0.001,Units=km,switch=T !numEQ 293449
new line.CTR395683 bus1=BMT167716066.1.2.3,bus2=BMT173104495.1.2.3,Phases=3,LineCode=tieSwitch,Length=0.001,Units=km,switch=T !numEQ 293438
new line.CTR395718 bus1=BMT167716097.1.2.3,bus2=BMT167716012.1.2.3,Phases=3,LineCode=tieSwitch,Length=0.001,Units=km,switch=T !numEQ 16230
open line.CTR395718 term=1
new line.CTR395732 bus1=BMT167716113.1.2.3,bus2=BMT167716114.1.2.3,Phases=3,LineCode=tieSwitch,Length=0.001,Units=km,switch=T !numEQ 16238
new line.CTR395739 bus1=BMT167716067.1.2.3,bus2=BMT167716110.1.2.3,Phases=3,LineCode=tieSwitch,Length=0.001,Units=km,switch=T !numEQ 16239
new line.CTR395753 bus1=BMT167715959.1.2.3,bus2=BMT171724150.1.2.3,Phases=3,LineCode=tieSwitch,Length=0.001,Units=km,switch=T !numEQ 181258
new line.CTR395767 bus1=BMT167716033.1.2.3,bus2=BMT167716162.1.2.3,Phases=3,LineCode=tieSwitch,Length=0.001,Units=km,switch=T !numEQ 16244
new line.CTR395795 bus1=BMT167716063.1.2.3,bus2=BMT167716138.1.2.3,Phases=3,LineCode=tieSwitch,Length=0.001,Units=km,switch=T !numEQ 16252
new line.CTR396894 bus1=BMT167714389.3,bus2=BMT167714983.3,Phases=1,LineCode=tieSwitch1,Length=0.001,Units=km,switch=T !numEQ 16677
new line.CTR396901 bus1=BMT167714425.1,bus2=BMT167714483.1,Phases=1,LineCode=tieSwitch1,Length=0.001,Units=km,switch=T !numEQ 16674
new line.CTR396922 bus1=BMT167714381.1.2.3,bus2=BMT167715034.1.2.3,Phases=3,LineCode=tieSwitch,Length=0.001,Units=km,switch=T !numEQ 16679
new line.CTR3970 bus1=BMT167715638.1,bus2=BMT168377628.1,Phases=1,LineCode=tieSwitch1,Length=0.001,Units=km,switch=T !numEQ 204908
new line.CTR426693 bus1=BMT167714299.3,bus2=BMT167715738.3,Phases=1,LineCode=tieSwitch1,Length=0.001,Units=km,switch=T !numEQ 45878
new line.CTR426707 bus1=BMT167715862.1,bus2=BMT167715866.1,Phases=1,LineCode=tieSwitch1,Length=0.001,Units=km,switch=T !numEQ 45893
new line.CTR426721 bus1=BMT167716128.1.2.3,bus2=BMT167716133.1.2.3,Phases=3,LineCode=tieSwitch,Length=0.001,Units=km,switch=T !numEQ 45909
new line.CTR438089 bus1=BMT167714356.1.2.3,bus2=BMT167714357.1.2.3,Phases=3,LineCode=tieSwitch,Length=0.001,Units=km,switch=T !numEQ 61716
new line.CTR469442 bus1=BMT167714845.1,bus2=BMT167714875.1,Phases=1,LineCode=tieSwitch1,Length=0.001,Units=km,switch=T !numEQ 192303
new line.CTR470835 bus1=BMT167714461.3,bus2=BMT167714466.3,Phases=1,LineCode=tieSwitch1,Length=0.001,Units=km,switch=T !numEQ 190144
new line.CTR526653 bus1=BMT167715754.2,bus2=BMT167715828.2,Phases=1,LineCode=tieSwitch1,Length=0.001,Units=km,switch=T !numEQ 211391
new line.CTR531595 bus1=BMT167715981.1.2.3,bus2=BMT167715982.1.2.3,Phases=3,LineCode=tieSwitch,Length=0.001,Units=km,switch=T !numEQ 80749
new line.CTR531805 bus1=BMT167714696.3,bus2=BMT167714697.3,Phases=1,LineCode=tieSwitch1,Length=0.001,Units=km,switch=T !numEQ 80655
new line.CTR531861 bus1=BMT167714748.3,bus2=BMT167714761.3,Phases=1,LineCode=tieSwitch1,Length=0.001,Units=km,switch=T !numEQ 80663
new line.CTR57261 bus1=BMT167716123.1.2.3,bus2=BMT167716124.1.2.3,Phases=3,LineCode=tieSwitch,Length=0.001,Units=km,switch=T !numEQ 45907
new line.CTR57317 bus1=BMT167714283.1.2.3,bus2=BMT167715744.1.2.3,Phases=3,LineCode=tieSwitch,Length=0.001,Units=km,switch=T !numEQ 45897
new line.CTR594777 bus1=BMT167715838.1,bus2=BMT167715839.1,Phases=1,LineCode=tieSwitch1,Length=0.001,Units=km,switch=T !numEQ 207789
new line.CTR594875 bus1=BMT167716056.1.2.3,bus2=BMT167716057.1.2.3,Phases=3,LineCode=tieSwitch,Length=0.001,Units=km,switch=T !numEQ 16250
new line.CTR594966 bus1=BMT167714219.1.2.3,bus2=BMT173076422.1.2.3,Phases=3,LineCode=tieSwitch,Length=0.001,Units=km,switch=T !numEQ 16256
new line.CTR595029 bus1=BMT167716005.1.2.3,bus2=BMT170613191.1.2.3,Phases=3,LineCode=tieSwitch,Length=0.001,Units=km,switch=T !numEQ 16207
new line.CTR203267 bus1=BMT167714533.3,bus2=BMT168840065.3,Phases=1,LineCode=tieSwitch1,Length=0.001,Units=km,switch=T !numEQ 13364
new line.CTR276459 bus1=BMT167714938.1,bus2=BMT167714946.1,Phases=1,LineCode=tieSwitch1,Length=0.001,Units=km,switch=T !numEQ 15922
new line.CTR276886 bus1=BMT167714731.3,bus2=BMT167714735.3,Phases=1,LineCode=tieSwitch1,Length=0.001,Units=km,switch=T !numEQ 15719
new line.CTR277530 bus1=BMT167714197.1.2.3,bus2=BMT167715945.1.2.3,Phases=3,LineCode=tieSwitch,Length=0.001,Units=km,switch=T !numEQ 15261
new line.CTR278223 bus1=BMT167714613.3,bus2=BMT167714615.3,Phases=1,LineCode=tieSwitch1,Length=0.001,Units=km,switch=T !numEQ 14867
open line.CTR278223 term=1
new line.CTR278251 bus1=BMT167715547.1,bus2=BMT167715733.1,Phases=1,LineCode=tieSwitch1,Length=0.001,Units=km,switch=T !numEQ 14880
new line.CTR278286 bus1=BMT167715038.1,bus2=BMT167715040.1,Phases=1,LineCode=tieSwitch1,Length=0.001,Units=km,switch=T !numEQ 14890
new line.CTR278531 bus1=BMT167714764.3,bus2=BMT167714770.3,Phases=1,LineCode=tieSwitch1,Length=0.001,Units=km,switch=T !numEQ 14709
new line.CTR311578 bus1=BMT167715518.2,bus2=BMT167715523.2,Phases=1,LineCode=tieSwitch1,Length=0.001,Units=km,switch=T !numEQ 133128
new line.CTR351702 bus1=BMT167715767.2,bus2=BMT171136597.2,Phases=1,LineCode=tieSwitch1,Length=0.001,Units=km,switch=T !numEQ 117052
new line.CTR389474 bus1=BMT167715755.3,bus2=BMT167715798.3,Phases=1,LineCode=tieSwitch1,Length=0.001,Units=km,switch=T !numEQ 12671
new line.CTR390629 bus1=BMT167715593.1,bus2=BMT167715686.1,Phases=1,LineCode=tieSwitch1,Length=0.001,Units=km,switch=T !numEQ 240480
new line.CTR391749 bus1=BMT167716055.1,bus2=BMT167716059.1,Phases=1,LineCode=tieSwitch1,Length=0.001,Units=km,switch=T !numEQ 13958
new line.CTR466684 bus1=BMT167714958.1,bus2=BMT167714959.1,Phases=1,LineCode=tieSwitch1,Length=0.001,Units=km,switch=T !numEQ 145134
new line.CTR522831 bus1=BMT167715323.2,bus2=BMT173049624.2,Phases=1,LineCode=tieSwitch1,Length=0.001,Units=km,switch=T !numEQ 79056
new line.CTR522859 bus1=BMT167715329.2,bus2=BMT167715394.2,Phases=1,LineCode=tieSwitch1,Length=0.001,Units=km,switch=T !numEQ 79150
new line.CTR522887 bus1=BMT167714401.1,bus2=BMT167714621.1,Phases=1,LineCode=tieSwitch1,Length=0.001,Units=km,switch=T !numEQ 14722
new line.CTR522915 bus1=BMT167714627.1,bus2=BMT170755450.1,Phases=1,LineCode=tieSwitch1,Length=0.001,Units=km,switch=T !numEQ 49874
new line.CTR523111 bus1=BMT167714485.1,bus2=BMT167714487.1,Phases=1,LineCode=tieSwitch1,Length=0.001,Units=km,switch=T !numEQ 79099
new line.CTR523209 bus1=BMT167715302.3,bus2=BMT167715303.3,Phases=1,LineCode=tieSwitch1,Length=0.001,Units=km,switch=T !numEQ 185781
new line.CTR754524 bus1=BMT167714928.1,bus2=BMT167714929.1,Phases=1,LineCode=tieSwitch1,Length=0.001,Units=km,switch=T !numEQ 218311
new line.CTR887055 bus1=BMT172398420.1,bus2=BMT172652203.1,Phases=1,LineCode=tieSwitch1,Length=0.001,Units=km,switch=T !numEQ 80676
new line.CTR917895 bus1=BMT172656559.1,bus2=BMT172797415.1,Phases=1,LineCode=tieSwitch1,Length=0.001,Units=km,switch=T !numEQ 322472
new line.CTR919319 bus1=BMT173076423.1,bus2=BMT173076887.1,Phases=1,LineCode=tieSwitch1,Length=0.001,Units=km,switch=T !numEQ 279031
new line.CTR595064 bus1=BMT167715997.1.2.3,bus2=BMT167716016.1.2.3,Phases=3,LineCode=tieSwitch,Length=0.001,Units=km,switch=T !numEQ 16209
new line.CTR595120 bus1=BMT167716038.1.2.3,bus2=BMT167716039.1.2.3,Phases=3,LineCode=tieSwitch,Length=0.001,Units=km,switch=T !numEQ 16213
new line.CTR595148 bus1=BMT167716043.1.2.3,bus2=BMT167716044.1.2.3,Phases=3,LineCode=tieSwitch,Length=0.001,Units=km,switch=T !numEQ 16214
new line.CTR595169 bus1=BMT167716048.1.2.3,bus2=BMT167716051.1.2.3,Phases=3,LineCode=tieSwitch,Length=0.001,Units=km,switch=T !numEQ 16216
new line.CTR596268 bus1=BMT167715244.3,bus2=BMT173260581.3,Phases=1,LineCode=tieSwitch1,Length=0.001,Units=km,switch=T !numEQ 15713
new line.CTR597416 bus1=BMT167714198.1.2.3,bus2=BMT167714199.1.2.3,Phases=3,LineCode=tieSwitch,Length=0.001,Units=km,switch=T !numEQ 15007
new line.CTR597444 bus1=BMT167714200.1.2.3,bus2=BMT167714201.1.2.3,Phases=3,LineCode=tieSwitch,Length=0.001,Units=km,switch=T !numEQ 15009
new line.CTR597640 bus1=BMT167714999.1,bus2=BMT167715001.1,Phases=1,LineCode=tieSwitch1,Length=0.001,Units=km,switch=T !numEQ 14924
new line.CTR638534 bus1=BMT167714859.1,bus2=BMT167714865.1,Phases=1,LineCode=tieSwitch1,Length=0.001,Units=km,switch=T !numEQ 203679
new line.CTR698328 bus1=BMT167714937.1,bus2=BMT167714948.1,Phases=1,LineCode=tieSwitch1,Length=0.001,Units=km,switch=T !numEQ 209239
new line.CTR746922 bus1=BMT167714265.1.2.3,bus2=BMT167714266.1.2.3,Phases=3,LineCode=tieSwitch,Length=0.001,Units=km,switch=T !numEQ 224212
new line.CTR747146 bus1=BMT167715705.1,bus2=BMT167715707.1,Phases=1,LineCode=tieSwitch1,Length=0.001,Units=km,switch=T !numEQ 231824
new line.CTR749778 bus1=BMT167715572.1,bus2=BMT167715715.1,Phases=1,LineCode=tieSwitch1,Length=0.001,Units=km,switch=T !numEQ 229485
new line.CTR749785 bus1=BMT167714426.3,bus2=BMT167714479.3,Phases=1,LineCode=tieSwitch1,Length=0.001,Units=km,switch=T !numEQ 231823
new line.CTR751129 bus1=BMT167714977.3,bus2=BMT167714979.3,Phases=1,LineCode=tieSwitch1,Length=0.001,Units=km,switch=T !numEQ 224350
new line.CTR875884 bus1=BMT167715774.2,bus2=BMT167715782.2,Phases=1,LineCode=tieSwitch1,Length=0.001,Units=km,switch=T !numEQ 207673
new line.CTR887288 bus1=BMT167715204.2,bus2=BMT167715206.2,Phases=1,LineCode=tieSwitch1,Length=0.001,Units=km,switch=T !numEQ 260713
new line.CTR887289 bus1=BMT167715194.2,bus2=BMT167715203.2,Phases=1,LineCode=tieSwitch1,Length=0.001,Units=km,switch=T !numEQ 256132
new line.CTR887345 bus1=BMT167714790.3,bus2=BMT167714807.3,Phases=1,LineCode=tieSwitch1,Length=0.001,Units=km,switch=T !numEQ 260716
new line.CTR895925 bus1=BMT165098858.1.2.3,bus2=BMT165098857.1.2.3,Phases=3,LineCode=tieSwitch,Length=0.001,Units=km,switch=T !numEQ 241777
new line.CTR93675 bus1=BMT167714835.1,bus2=BMT167714889.1,Phases=1,LineCode=tieSwitch1,Length=0.001,Units=km,switch=T !numEQ 15928
new line.CTR177682 bus1=BMT167715961.1.2.3,bus2=BMT167715966.1.2.3,Phases=3,LineCode=tieSwitch,Length=0.001,Units=km,switch=T !numEQ 104102
new line.CTR193026 bus1=BMT167715846.1,bus2=BMT167715849.1,Phases=1,LineCode=tieSwitch1,Length=0.001,Units=km,switch=T !numEQ 45890
new line.CTR211905 bus1=BMT167715853.1,bus2=BMT167715868.1,Phases=1,LineCode=tieSwitch1,Length=0.001,Units=km,switch=T !numEQ 80702
new line.CTR211968 bus1=BMT167714321.2,bus2=BMT167714340.2,Phases=1,LineCode=tieSwitch1,Length=0.001,Units=km,switch=T !numEQ 80735
new line.CTR211982 bus1=BMT167715532.2,bus2=BMT167715535.2,Phases=1,LineCode=tieSwitch1,Length=0.001,Units=km,switch=T !numEQ 80737
new line.CTR212038 bus1=BMT167715609.1,bus2=BMT167715611.1,Phases=1,LineCode=tieSwitch1,Length=0.001,Units=km,switch=T !numEQ 80726
new line.CTR212073 bus1=BMT167716002.1.2.3,bus2=BMT167716013.1.2.3,Phases=3,LineCode=tieSwitch,Length=0.001,Units=km,switch=T !numEQ 80627
new line.CTR212087 bus1=BMT167716100.1.2.3,bus2=BMT167716103.1.2.3,Phases=3,LineCode=tieSwitch,Length=0.001,Units=km,switch=T !numEQ 80631
new line.CTR212115 bus1=BMT167716177.1,bus2=BMT167716179.1,Phases=1,LineCode=tieSwitch1,Length=0.001,Units=km,switch=T !numEQ 80636
new line.CTR212178 bus1=BMT167714715.3,bus2=BMT167714738.3,Phases=1,LineCode=tieSwitch1,Length=0.001,Units=km,switch=T !numEQ 80667
new line.CTR213438 bus1=BMT167714814.1,bus2=BMT167714963.1,Phases=1,LineCode=tieSwitch1,Length=0.001,Units=km,switch=T !numEQ 203719
new line.CTR239891 bus1=BMT167714272.1.2.3,bus2=BMT167714275.1.2.3,Phases=3,LineCode=tieSwitch,Length=0.001,Units=km,switch=T !numEQ 45873
new line.CTR239919 bus1=BMT167715850.1,bus2=BMT167715852.1,Phases=1,LineCode=tieSwitch1,Length=0.001,Units=km,switch=T !numEQ 45892
new line.CTR288779 bus1=BMT167715939.1.2.3,bus2=BMT167715940.1.2.3,Phases=3,LineCode=tieSwitch,Length=0.001,Units=km,switch=T !numEQ 164534
new line.CTR32691 bus1=BMT167714798.3,bus2=BMT167714800.3,Phases=1,LineCode=tieSwitch1,Length=0.001,Units=km,switch=T !numEQ 79107
new line.CTR404041 bus1=BMT167715712.1,bus2=BMT167715713.1,Phases=1,LineCode=tieSwitch1,Length=0.001,Units=km,switch=T !numEQ 20604
new line.CTR476960 bus1=BMT167714204.1.2.3,bus2=BMT167714205.1.2.3,Phases=3,LineCode=tieSwitch,Length=0.001,Units=km,switch=T !numEQ 49827
new line.CTR479627 bus1=BMT167715907.1,bus2=BMT167715909.1,Phases=1,LineCode=tieSwitch1,Length=0.001,Units=km,switch=T !numEQ 190830
new line.CTR534367 bus1=BMT167715229.3,bus2=BMT167715288.3,Phases=1,LineCode=tieSwitch1,Length=0.001,Units=km,switch=T !numEQ 79466
new line.CTR534395 bus1=BMT167715409.2,bus2=BMT167715418.2,Phases=1,LineCode=tieSwitch1,Length=0.001,Units=km,switch=T !numEQ 79471
new line.CTR534423 bus1=BMT167715337.2,bus2=BMT167715341.2,Phases=1,LineCode=tieSwitch1,Length=0.001,Units=km,switch=T !numEQ 79474
new line.CTR534507 bus1=BMT167715366.2,bus2=BMT167715368.2,Phases=1,LineCode=tieSwitch1,Length=0.001,Units=km,switch=T !numEQ 79494
new line.CTR534906 bus1=BMT167714413.3,bus2=BMT167714608.3,Phases=1,LineCode=tieSwitch1,Length=0.001,Units=km,switch=T !numEQ 79093
new line.CTR534934 bus1=BMT167714592.1,bus2=BMT172246360.1,Phases=1,LineCode=tieSwitch1,Length=0.001,Units=km,switch=T !numEQ 79094
new line.CTR534962 bus1=BMT167714648.1,bus2=BMT167714670.1,Phases=1,LineCode=tieSwitch1,Length=0.001,Units=km,switch=T !numEQ 79097
new line.CTR535137 bus1=BMT167715331.2,bus2=BMT168536052.2,Phases=1,LineCode=tieSwitch1,Length=0.001,Units=km,switch=T !numEQ 79073
new line.CTR535165 bus1=BMT167715354.2,bus2=BMT167715377.2,Phases=1,LineCode=tieSwitch1,Length=0.001,Units=km,switch=T !numEQ 79078
new line.CTR535375 bus1=BMT167714282.1.2.3,bus2=BMT168952465.1.2.3,Phases=3,LineCode=tieSwitch,Length=0.001,Units=km,switch=T !numEQ 78931
new line.CTR6483 bus1=BMT167714294.1,bus2=BMT167715742.1,Phases=1,LineCode=tieSwitch1,Length=0.001,Units=km,switch=T !numEQ 200833
new line.CTR706056 bus1=BMT167714882.1,bus2=BMT167714885.1,Phases=1,LineCode=tieSwitch1,Length=0.001,Units=km,switch=T !numEQ 206246
new line.CTR835038 bus1=BMT167715877.1,bus2=BMT167715878.1,Phases=1,LineCode=tieSwitch1,Length=0.001,Units=km,switch=T !numEQ 197680
new line.CTR838755 bus1=BMT167714322.2,bus2=BMT167715526.2,Phases=1,LineCode=tieSwitch1,Length=0.001,Units=km,switch=T !numEQ 220007
new line.CTR905303 bus1=BMT168428780.3,bus2=BMT168440244.3,Phases=1,LineCode=tieSwitch1,Length=0.001,Units=km,switch=T !numEQ 250169
new line.CTR906745 bus1=BMT168952472.2,bus2=BMT168953576.2,Phases=1,LineCode=tieSwitch1,Length=0.001,Units=km,switch=T !numEQ 250736
new line.CTR92653 bus1=BMT167716058.1.2.3,bus2=BMT167716140.1.2.3,Phases=3,LineCode=tieSwitch,Length=0.001,Units=km,switch=T !numEQ 16245
new line.CTR92807 bus1=BMT167715971.1.2.3,bus2=BMT167715972.1.2.3,Phases=3,LineCode=tieSwitch,Length=0.001,Units=km,switch=T !numEQ 16203
new line.CTR92835 bus1=BMT167715992.1.2.3,bus2=BMT167716174.1.2.3,Phases=3,LineCode=tieSwitch,Length=0.001,Units=km,switch=T !numEQ 16205
new line.CTR92877 bus1=BMT167716082.1.2.3,bus2=BMT167716083.1.2.3,Phases=3,LineCode=tieSwitch,Length=0.001,Units=km,switch=T !numEQ 16218
new line.CTR270789 bus1=BMT167715135.3,bus2=BMT167715208.3,Phases=1,LineCode=tieSwitch1,Length=0.001,Units=km,switch=T !numEQ 79032
new line.CTR340656 bus1=BMT167714391.3,bus2=BMT167714969.3,Phases=1,LineCode=tieSwitch1,Length=0.001,Units=km,switch=T !numEQ 133130
new line.CTR341083 bus1=BMT167714284.1.2.3,bus2=BMT167714287.1.2.3,Phases=3,LineCode=tieSwitch,Length=0.001,Units=km,switch=T !numEQ 133262
new line.CTR380423 bus1=BMT167715580.1,bus2=BMT167715584.1,Phases=1,LineCode=tieSwitch1,Length=0.001,Units=km,switch=T !numEQ 80725
new line.CTR599754 bus1=BMT167714632.1,bus2=BMT167714635.1,Phases=1,LineCode=tieSwitch1,Length=0.001,Units=km,switch=T !numEQ 13991
new line.CTR600636 bus1=BMT167715979.1.2.3,bus2=BMT167716183.1.2.3,Phases=3,LineCode=tieSwitch,Length=0.001,Units=km,switch=T !numEQ 13400
new line.CTR602498 bus1=BMT167714263.1.2.3,bus2=BMT167714264.1.2.3,Phases=3,LineCode=tieSwitch,Length=0.001,Units=km,switch=T !numEQ 224215
new line.CTR860357 bus1=BMT167715263.3,bus2=BMT167715266.3,Phases=1,LineCode=tieSwitch1,Length=0.001,Units=km,switch=T !numEQ 375230
new line.CTR876928 bus1=BMT167714259.1.2.3,bus2=BMT167714261.1.2.3,Phases=3,LineCode=tieSwitch,Length=0.001,Units=km,switch=T !numEQ 251131
new line.CTR892587 bus1=BMT167714542.3,bus2=BMT167714571.3,Phases=1,LineCode=tieSwitch1,Length=0.001,Units=km,switch=T !numEQ 261473
new line.CTR95341 bus1=BMT167714348.1.2.3,bus2=BMT167714349.1.2.3,Phases=3,LineCode=tieSwitch,Length=0.001,Units=km,switch=T !numEQ 293436
new line.CTR134457 bus1=BMT167714459.3,bus2=BMT167714470.3,Phases=1,LineCode=tieSwitch1,Length=0.001,Units=km,switch=T !numEQ 138508
new line.CTR269074 bus1=BMT167714315.1.2.3,bus2=BMT167715544.1.2.3,Phases=3,LineCode=tieSwitch,Length=0.001,Units=km,switch=T !numEQ 133261
new line.CTR29387 bus1=BMT167715977.1.2.3,bus2=BMT167715978.1.2.3,Phases=3,LineCode=tieSwitch,Length=0.001,Units=km,switch=T !numEQ 80747
new line.CTR336645 bus1=BMT167714209.1.2.3,bus2=BMT167714210.1.2.3,Phases=3,LineCode=tieSwitch,Length=0.001,Units=km,switch=T !numEQ 133294
new line.CTR37591 bus1=BMT167715604.1,bus2=BMT172530497.1,Phases=1,LineCode=tieSwitch1,Length=0.001,Units=km,switch=T !numEQ 14407
new line.CTR451879 bus1=BMT172345971.1,bus2=BMT172345991.1,Phases=1,LineCode=tieSwitch1,Length=0.001,Units=km,switch=T !numEQ 80505
new line.CTR452026 bus1=BMT167716027.1.2.3,bus2=BMT167716166.1.2.3,Phases=3,LineCode=tieSwitch,Length=0.001,Units=km,switch=T !numEQ 80628
new line.CTR452096 bus1=BMT167714622.1,bus2=BMT167714624.1,Phases=1,LineCode=tieSwitch1,Length=0.001,Units=km,switch=T !numEQ 218317
new line.CTR452103 bus1=BMT167714317.2,bus2=BMT167715530.2,Phases=1,LineCode=tieSwitch1,Length=0.001,Units=km,switch=T !numEQ 80736
new line.CTR452110 bus1=BMT167714709.3,bus2=BMT167714745.3,Phases=1,LineCode=tieSwitch1,Length=0.001,Units=km,switch=T !numEQ 80661
new line.CTR452117 bus1=BMT167714826.1,bus2=BMT167714897.1,Phases=1,LineCode=tieSwitch1,Length=0.001,Units=km,switch=T !numEQ 80682
new line.CTR452124 bus1=BMT167714840.1,bus2=BMT167714854.1,Phases=1,LineCode=tieSwitch1,Length=0.001,Units=km,switch=T !numEQ 80687
new line.CTR452131 bus1=BMT167715599.1,bus2=BMT167715674.1,Phases=1,LineCode=tieSwitch1,Length=0.001,Units=km,switch=T !numEQ 80696
new line.CTR452138 bus1=BMT167715869.1,bus2=BMT167715926.1,Phases=1,LineCode=tieSwitch1,Length=0.001,Units=km,switch=T !numEQ 218184
new line.CTR452152 bus1=BMT167715590.1,bus2=BMT167715704.1,Phases=1,LineCode=tieSwitch1,Length=0.001,Units=km,switch=T !numEQ 240479
new line.CTR452159 bus1=BMT167714329.2,bus2=BMT168529044.2,Phases=1,LineCode=tieSwitch1,Length=0.001,Units=km,switch=T !numEQ 80730
new line.CTR452173 bus1=BMT167714314.1,bus2=BMT167715540.1,Phases=1,LineCode=tieSwitch1,Length=0.001,Units=km,switch=T !numEQ 80738
new line.CTR454329 bus1=BMT167714754.3,bus2=BMT167714756.3,Phases=1,LineCode=tieSwitch1,Length=0.001,Units=km,switch=T !numEQ 13439
new line.CTR552721 bus1=BMT167714681.3,bus2=BMT168428777.3,Phases=1,LineCode=tieSwitch1,Length=0.001,Units=km,switch=T !numEQ 49865
new line.CTR552833 bus1=BMT167715875.1,bus2=BMT167715879.1,Phases=1,LineCode=tieSwitch1,Length=0.001,Units=km,switch=T !numEQ 49830
new line.CTR616302 bus1=BMT167714270.2,bus2=BMT167714273.2,Phases=1,LineCode=tieSwitch1,Length=0.001,Units=km,switch=T !numEQ 45886
new line.CTR666716 bus1=BMT167714537.3,bus2=BMT167714573.3,Phases=1,LineCode=tieSwitch1,Length=0.001,Units=km,switch=T !numEQ 122996
new line.CTR726265 bus1=BMT167714490.1,bus2=BMT167714497.1,Phases=1,LineCode=tieSwitch1,Length=0.001,Units=km,switch=T !numEQ 223871
new line.CTR726272 bus1=BMT167714455.3,bus2=BMT167714473.3,Phases=1,LineCode=tieSwitch1,Length=0.001,Units=km,switch=T !numEQ 144137
new line.CTR726300 bus1=BMT167714706.3,bus2=BMT167714779.3,Phases=1,LineCode=tieSwitch1,Length=0.001,Units=km,switch=T !numEQ 223872
new line.CTR727609 bus1=BMT167715555.1,bus2=BMT167715719.1,Phases=1,LineCode=tieSwitch1,Length=0.001,Units=km,switch=T !numEQ 224496
new line.CTR90903 bus1=BMT167714384.1,bus2=BMT167714996.1,Phases=1,LineCode=tieSwitch1,Length=0.001,Units=km,switch=T !numEQ 16944
new line.CTRR37427 bus1=BMT167714676.3,bus2=BMT171558787.3,Phases=1,LineCode=tieSwitch1,Length=0.001,Units=km,switch=T !numEQ 224415
new line.CTRR37739 bus1=BMT170613194.1.2.3,bus2=BMT151396547.1.2.3,Phases=3,LineCode=tieSwitch,Length=0.001,Units=km,switch=T !numEQ 260216
open line.CTRR37739 term=1
new line.CTRR37975 bus1=BMT167715985.1.2.3,bus2=BMT167715988.1.2.3,Phases=3,LineCode=tieSwitch,Length=0.001,Units=km,switch=T !numEQ 260252
new line.CTR101487 bus1=BMT167715677.1,bus2=BMT167715684.1,Phases=1,LineCode=tieSwitch1,Length=0.001,Units=km,switch=T !numEQ 80697
new line.CTR214810 bus1=BMT167715012.1,bus2=BMT167715013.1,Phases=1,LineCode=tieSwitch1,Length=0.001,Units=km,switch=T !numEQ 79485
new line.CTR214943 bus1=BMT167715008.1,bus2=BMT167715009.1,Phases=1,LineCode=tieSwitch1,Length=0.001,Units=km,switch=T !numEQ 79373
new line.CTR215279 bus1=BMT167714905.1,bus2=BMT167714927.1,Phases=1,LineCode=tieSwitch1,Length=0.001,Units=km,switch=T !numEQ 79120
new line.CTR215356 bus1=BMT167716040.1.2.3,bus2=BMT167716159.1.2.3,Phases=3,LineCode=tieSwitch,Length=0.001,Units=km,switch=T !numEQ 79139
new line.CTR215370 bus1=BMT167715281.3,bus2=BMT167715284.3,Phases=1,LineCode=tieSwitch1,Length=0.001,Units=km,switch=T !numEQ 79141
new line.CTR215391 bus1=BMT167716071.1.2.3,bus2=BMT167716108.1.2.3,Phases=3,LineCode=tieSwitch,Length=0.001,Units=km,switch=T !numEQ 79000
new line.CTR215405 bus1=BMT167715317.2,bus2=BMT168536068.2,Phases=1,LineCode=tieSwitch1,Length=0.001,Units=km,switch=T !numEQ 79043
new line.CTR215475 bus1=BMT167715166.2,bus2=BMT167715167.2,Phases=1,LineCode=tieSwitch1,Length=0.001,Units=km,switch=T !numEQ 79021
new line.CTR215489 bus1=BMT167715141.1,bus2=BMT171798212.1,Phases=1,LineCode=tieSwitch1,Length=0.001,Units=km,switch=T !numEQ 79023
new line.CTR215503 bus1=BMT167715153.1,bus2=BMT167715157.1,Phases=1,LineCode=tieSwitch1,Length=0.001,Units=km,switch=T !numEQ 79029
new line.CTR215517 bus1=BMT167715231.3,bus2=BMT167715273.3,Phases=1,LineCode=tieSwitch1,Length=0.001,Units=km,switch=T !numEQ 79038
new line.CTR215531 bus1=BMT167715123.1.2.3,bus2=BMT167715127.1.2.3,Phases=3,LineCode=tieSwitch,Length=0.001,Units=km,switch=T !numEQ 79041
new line.CTR285755 bus1=BMT167715762.2,bus2=BMT167715796.2,Phases=1,LineCode=tieSwitch1,Length=0.001,Units=km,switch=T !numEQ 11128
new line.CTR287113 bus1=BMT167715240.3,bus2=BMT167715241.3,Phases=1,LineCode=tieSwitch1,Length=0.001,Units=km,switch=T !numEQ 185788
new line.CTR288100 bus1=BMT167715472.2,bus2=BMT167715473.2,Phases=1,LineCode=tieSwitch1,Length=0.001,Units=km,switch=T !numEQ 10059
new line.CTR32929 bus1=BMT167715325.2,bus2=BMT167715400.2,Phases=1,LineCode=tieSwitch1,Length=0.001,Units=km,switch=T !numEQ 79071
new line.CTR329897 bus1=BMT167715007.1,bus2=BMT167715022.1,Phases=1,LineCode=tieSwitch1,Length=0.001,Units=km,switch=T !numEQ 79484
new line.CTR332291 bus1=BMT167715897.1,bus2=BMT167715923.1,Phases=1,LineCode=tieSwitch1,Length=0.001,Units=km,switch=T !numEQ 138504
new line.CTR332319 bus1=BMT167715905.1,bus2=BMT167715915.1,Phases=1,LineCode=tieSwitch1,Length=0.001,Units=km,switch=T !numEQ 140298
new line.CTR364617 bus1=BMT167715765.2,bus2=BMT167715790.2,Phases=1,LineCode=tieSwitch1,Length=0.001,Units=km,switch=T !numEQ 101160
new line.CTR364722 bus1=BMT167715766.1.2.3,bus2=BMT167715768.1.2.3,Phases=3,LineCode=tieSwitch,Length=0.001,Units=km,switch=T !numEQ 101146
new line.CTR448547 bus1=BMT167714216.1.2.3,bus2=BMT167714250.1.2.3,Phases=3,LineCode=tieSwitch,Length=0.001,Units=km,switch=T !numEQ 187208
new line.CTR449023 bus1=BMT167714353.1.2.3,bus2=BMT169507105.1.2.3,Phases=3,LineCode=tieSwitch,Length=0.001,Units=km,switch=T !numEQ 293437
new line.CTR449142 bus1=BMT167714915.1,bus2=BMT169229270.1,Phases=1,LineCode=tieSwitch1,Length=0.001,Units=km,switch=T !numEQ 79122
new line.CTR449163 bus1=BMT167715139.2,bus2=BMT167715165.2,Phases=1,LineCode=tieSwitch1,Length=0.001,Units=km,switch=T !numEQ 79022
new line.CTR449177 bus1=BMT167715144.1,bus2=BMT167715163.1,Phases=1,LineCode=tieSwitch1,Length=0.001,Units=km,switch=T !numEQ 79025
new line.CTR449191 bus1=BMT167714390.3,bus2=BMT167714973.3,Phases=1,LineCode=tieSwitch1,Length=0.001,Units=km,switch=T !numEQ 79089
new line.CTR449198 bus1=BMT167715097.2,bus2=BMT167715457.2,Phases=1,LineCode=tieSwitch1,Length=0.001,Units=km,switch=T !numEQ 79064
new line.CTR449212 bus1=BMT167714704.3,bus2=BMT167714787.3,Phases=1,LineCode=tieSwitch1,Length=0.001,Units=km,switch=T !numEQ 79105
new line.CTR449219 bus1=BMT167714418.1,bus2=BMT167714590.1,Phases=1,LineCode=tieSwitch1,Length=0.001,Units=km,switch=T !numEQ 79095
new line.CTR449233 bus1=BMT167715334.2,bus2=BMT167715347.2,Phases=1,LineCode=tieSwitch1,Length=0.001,Units=km,switch=T !numEQ 79075
new line.CTR449296 bus1=BMT167714841.1,bus2=BMT167714881.1,Phases=1,LineCode=tieSwitch1,Length=0.001,Units=km,switch=T !numEQ 79142
new line.CTR449338 bus1=BMT167714705.3,bus2=BMT167714773.3,Phases=1,LineCode=tieSwitch1,Length=0.001,Units=km,switch=T !numEQ 79146
new line.CTR449786 bus1=BMT167715363.2,bus2=BMT167715373.2,Phases=1,LineCode=tieSwitch1,Length=0.001,Units=km,switch=T !numEQ 79472
new line.CTR449793 bus1=BMT167715379.2,bus2=BMT167715383.2,Phases=1,LineCode=tieSwitch1,Length=0.001,Units=km,switch=T !numEQ 79476
new line.CTR449800 bus1=BMT167715006.1,bus2=BMT167715030.1,Phases=1,LineCode=tieSwitch1,Length=0.001,Units=km,switch=T !numEQ 79483
new line.CTR449807 bus1=BMT167715023.1,bus2=BMT167715026.1,Phases=1,LineCode=tieSwitch1,Length=0.001,Units=km,switch=T !numEQ 79489
new line.CTR559497 bus1=BMT167716028.1.2.3,bus2=BMT167716031.1.2.3,Phases=3,LineCode=tieSwitch,Length=0.001,Units=km,switch=T !numEQ 45916
new line.CTR619060 bus1=BMT167714510.1,bus2=BMT167714518.1,Phases=1,LineCode=tieSwitch1,Length=0.001,Units=km,switch=T !numEQ 141491
new line.CTR678623 bus1=BMT167715327.2,bus2=BMT167715396.2,Phases=1,LineCode=tieSwitch1,Length=0.001,Units=km,switch=T !numEQ 203676
new line.CTR91421 bus1=BMT167714382.1.2.3,bus2=BMT167714383.1.2.3,Phases=3,LineCode=tieSwitch,Length=0.001,Units=km,switch=T !numEQ 16678
new line.CTR915336 bus1=BMT171798213.1,bus2=BMT171798214.1,Phases=1,LineCode=tieSwitch1,Length=0.001,Units=km,switch=T !numEQ 322163
new line.CTRR18285 bus1=BMT167714213.1.2.3,bus2=BMT167714214.1.2.3,Phases=3,LineCode=tieSwitch,Length=0.001,Units=km,switch=T !numEQ 213216
new line.CTR273554 bus1=BMT167714393.3,bus2=BMT167714675.3,Phases=1,LineCode=tieSwitch1,Length=0.001,Units=km,switch=T !numEQ 16903
new line.CTR274107 bus1=BMT167714398.1.2.3,bus2=BMT167714399.1.2.3,Phases=3,LineCode=tieSwitch,Length=0.001,Units=km,switch=T !numEQ 16676
new line.CTR275423 bus1=BMT167715996.1.2.3,bus2=BMT167716170.1.2.3,Phases=3,LineCode=tieSwitch,Length=0.001,Units=km,switch=T !numEQ 16243
new line.CTR275570 bus1=BMT167715957.1.2.3,bus2=BMT167715969.1.2.3,Phases=3,LineCode=tieSwitch,Length=0.001,Units=km,switch=T !numEQ 16202
new line.CTR275668 bus1=BMT167716116.1.2.3,bus2=BMT2741104.1.2.3,Phases=3,LineCode=tieSwitch,Length=0.001,Units=km,switch=T !numEQ 16237
open line.CTR275668 term=1
new line.CTR275682 bus1=BMT167716092.1.2.3,bus2=BMT167716041.1.2.3,Phases=3,LineCode=tieSwitch,Length=0.001,Units=km,switch=T !numEQ 16240
open line.CTR275682 term=1
new line.CTR3431442 bus1=BMT2206777571.1.2.3,bus2=BMT2003431443.1.2.3,Phases=3,LineCode=tieSwitch,Length=0.001,Units=km,switch=T !numEQ 
new line.CTR3431456 bus1=BMT2003431094.1.2.3,bus2=BMT2206777571.1.2.3,Phases=3,LineCode=tieSwitch,Length=0.001,Units=km,switch=T !numEQ 
new line.CTR384903 bus1=BMT167716155.1.2.3,bus2=BMT167716156.1.2.3,Phases=3,LineCode=tieSwitch,Length=0.001,Units=km,switch=T !numEQ 10060
new line.CTR385596 bus1=BMT167714237.1,bus2=BMT167714238.1,Phases=1,LineCode=tieSwitch1,Length=0.001,Units=km,switch=T !numEQ 10442
new line.CTR385603 bus1=BMT167716153.1.2.3,bus2=BMT167716095.1.2.3,Phases=3,LineCode=tieSwitch,Length=0.001,Units=km,switch=T !numEQ 10447
open line.CTR385603 term=1
new line.CTR460223 bus1=BMT167715199.2,bus2=BMT167715200.2,Phases=1,LineCode=tieSwitch1,Length=0.001,Units=km,switch=T !numEQ 146433
new line.CTR461287 bus1=BMT167714231.1.2.3,bus2=BMT167714244.1.2.3,Phases=3,LineCode=tieSwitch,Length=0.001,Units=km,switch=T !numEQ 165636
new line.CTR463009 bus1=BMT167714416.1.2.3,bus2=BMT171721157.1.2.3,Phases=3,LineCode=tieSwitch,Length=0.001,Units=km,switch=T !numEQ 16902
new line.CTR515460 bus1=BMT167714355.1,bus2=BMT167715065.1,Phases=1,LineCode=tieSwitch1,Length=0.001,Units=km,switch=T !numEQ 141122
new line.CTR518771 bus1=BMT167715777.2,bus2=BMT167715784.2,Phases=1,LineCode=tieSwitch1,Length=0.001,Units=km,switch=T !numEQ 10051
new line.CTR681731 bus1=BMT167714834.1,bus2=BMT167714893.1,Phases=1,LineCode=tieSwitch1,Length=0.001,Units=km,switch=T !numEQ 208992
new line.CTR742897 bus1=BMT167715669.1,bus2=BMT167715670.1,Phases=1,LineCode=tieSwitch1,Length=0.001,Units=km,switch=T !numEQ 229578
new line.CTR744731 bus1=BMT173104500.1.2.3,bus2=BMT173104501.1.2.3,Phases=3,LineCode=tieSwitch,Length=0.001,Units=km,switch=T !numEQ 16664
new line.CTR853213 bus1=BMT167715649.1,bus2=BMT167715660.1,Phases=1,LineCode=tieSwitch1,Length=0.001,Units=km,switch=T !numEQ 384613
new line.CTR853222 bus1=BMT167716076.1.2.3,bus2=BMT167716077.1.2.3,Phases=3,LineCode=tieSwitch,Length=0.001,Units=km,switch=T !numEQ 380512
new line.CTR853345 bus1=BMT167714492.1,bus2=BMT167714493.1,Phases=1,LineCode=tieSwitch1,Length=0.001,Units=km,switch=T !numEQ 384620
new line.CTR912995 bus1=BMT171132721.1,bus2=BMT171133277.1,Phases=1,LineCode=tieSwitch1,Length=0.001,Units=km,switch=T !numEQ 278568
new line.CTR188672 bus1=BMT167714395.1,bus2=BMT172398412.1,Phases=1,LineCode=tieSwitch1,Length=0.001,Units=km,switch=T !numEQ 91456
new line.CTR205178 bus1=BMT167715132.3,bus2=BMT167715307.3,Phases=1,LineCode=tieSwitch1,Length=0.001,Units=km,switch=T !numEQ 79039
new line.CTR20637 bus1=BMT167714821.1,bus2=BMT167714952.1,Phases=1,LineCode=tieSwitch1,Length=0.001,Units=km,switch=T !numEQ 80684
new line.CTR317199 bus1=BMT167714498.1,bus2=BMT172656555.1,Phases=1,LineCode=tieSwitch1,Length=0.001,Units=km,switch=T !numEQ 138507
new line.CTR318515 bus1=BMT167714253.1,bus2=BMT167715943.1,Phases=1,LineCode=tieSwitch1,Length=0.001,Units=km,switch=T !numEQ 119783
new line.CTR355202 bus1=BMT167715749.2,bus2=BMT167715832.2,Phases=1,LineCode=tieSwitch1,Length=0.001,Units=km,switch=T !numEQ 143023
new line.CTR355216 bus1=BMT167715644.1,bus2=BMT167715664.1,Phases=1,LineCode=tieSwitch1,Length=0.001,Units=km,switch=T !numEQ 143024
new line.CTR355230 bus1=BMT167715810.3,bus2=BMT169828036.3,Phases=1,LineCode=tieSwitch1,Length=0.001,Units=km,switch=T !numEQ 179307
new line.CTR397440 bus1=BMT167714680.3,bus2=BMT167714691.3,Phases=1,LineCode=tieSwitch1,Length=0.001,Units=km,switch=T !numEQ 16904
new line.CTR398658 bus1=BMT167715011.1,bus2=BMT167715015.1,Phases=1,LineCode=tieSwitch1,Length=0.001,Units=km,switch=T !numEQ 145137
new line.CTR399596 bus1=BMT167714596.1,bus2=BMT167714604.1,Phases=1,LineCode=tieSwitch1,Length=0.001,Units=km,switch=T !numEQ 49905
new line.CTR433609 bus1=BMT167714203.1.2.3,bus2=BMT2740950.1.2.3,Phases=3,LineCode=tieSwitch,Length=0.001,Units=km,switch=T !numEQ 49805
open line.CTR433609 term=1
new line.CTR433658 bus1=BMT167715125.1.2.3,bus2=BMT168515658.1.2.3,Phases=3,LineCode=tieSwitch,Length=0.001,Units=km,switch=T !numEQ 49839
new line.CTR433854 bus1=BMT167715232.3,bus2=BMT167715259.3,Phases=1,LineCode=tieSwitch1,Length=0.001,Units=km,switch=T !numEQ 49883
new line.CTR434274 bus1=BMT167714386.3,bus2=BMT167714985.3,Phases=1,LineCode=tieSwitch1,Length=0.001,Units=km,switch=T !numEQ 50589
new line.CTR435219 bus1=BMT167714218.1.2.3,bus2=BMT167714221.1.2.3,Phases=3,LineCode=tieSwitch,Length=0.001,Units=km,switch=T !numEQ 45914
new line.CTR482315 bus1=BMT167715563.1,bus2=BMT167715565.1,Phases=1,LineCode=tieSwitch1,Length=0.001,Units=km,switch=T !numEQ 80743
new line.CTR483673 bus1=BMT167714262.1.2.3,bus2=BMT167715936.1.2.3,Phases=3,LineCode=tieSwitch,Length=0.001,Units=km,switch=T !numEQ 45879
new line.CTR483785 bus1=BMT167714337.1.2.3,bus2=BMT167714338.1.2.3,Phases=3,LineCode=tieSwitch,Length=0.001,Units=km,switch=T !numEQ 293435
new line.CTR483792 bus1=BMT167715880.1,bus2=BMT167715891.1,Phases=1,LineCode=tieSwitch1,Length=0.001,Units=km,switch=T !numEQ 11300
new line.CTR483918 bus1=BMT165098776.1.2.3,bus2=BMT165098859.1.2.3,Phases=3,LineCode=tieSwitch,Length=0.001,Units=km,switch=T !numEQ 74846
open line.CTR483918 term=1
new line.CTR484009 bus1=BMT167715689.1,bus2=BMT167715700.1,Phases=1,LineCode=tieSwitch1,Length=0.001,Units=km,switch=T !numEQ 185780
new line.CTR484016 bus1=BMT167715883.1,bus2=BMT169655586.1,Phases=1,LineCode=tieSwitch1,Length=0.001,Units=km,switch=T !numEQ 185782
new line.CTR484058 bus1=BMT167714388.1,bus2=BMT167714992.1,Phases=1,LineCode=tieSwitch1,Length=0.001,Units=km,switch=T !numEQ 185783
new line.CTR484065 bus1=BMT167715260.3,bus2=BMT167715270.3,Phases=1,LineCode=tieSwitch1,Length=0.001,Units=km,switch=T !numEQ 185784
new line.CTR484072 bus1=BMT167715854.1,bus2=BMT167715855.1,Phases=1,LineCode=tieSwitch1,Length=0.001,Units=km,switch=T !numEQ 185785
new line.CTR484079 bus1=BMT167714434.1.2.3,bus2=BMT167714440.1.2.3,Phases=3,LineCode=tieSwitch,Length=0.001,Units=km,switch=T !numEQ 185786
new line.CTR484086 bus1=BMT167714986.3,bus2=BMT167714988.3,Phases=1,LineCode=tieSwitch1,Length=0.001,Units=km,switch=T !numEQ 185787
new line.CTR485192 bus1=BMT167714271.1,bus2=BMT167715837.1,Phases=1,LineCode=tieSwitch1,Length=0.001,Units=km,switch=T !numEQ 186328
new line.CTR485339 bus1=BMT167716081.1.2.3,bus2=BMT167716106.1.2.3,Phases=3,LineCode=tieSwitch,Length=0.001,Units=km,switch=T !numEQ 186221
new line.CTR485472 bus1=BMT167715819.3,bus2=BMT167715820.3,Phases=1,LineCode=tieSwitch1,Length=0.001,Units=km,switch=T !numEQ 166466
new line.CTR606439 bus1=BMT167714801.3,bus2=BMT167714803.3,Phases=1,LineCode=tieSwitch1,Length=0.001,Units=km,switch=T !numEQ 211390
new line.CTR660192 bus1=BMT167715218.3,bus2=BMT167715239.3,Phases=1,LineCode=tieSwitch1,Length=0.001,Units=km,switch=T !numEQ 15975
new line.CTR723577 bus1=BMT167714445.3,bus2=BMT167714446.3,Phases=1,LineCode=tieSwitch1,Length=0.001,Units=km,switch=T !numEQ 223868
new line.CTR864811 bus1=BMT167714247.1.2.3,bus2=BMT167714248.1.2.3,Phases=3,LineCode=tieSwitch,Length=0.001,Units=km,switch=T !numEQ 240466
new line.CTR865464 bus1=BMT167716121.1.2.3,bus2=BMT167716136.1.2.3,Phases=3,LineCode=tieSwitch,Length=0.001,Units=km,switch=T !numEQ 166893
new line.CTR898057 bus1=BMT167714563.3,bus2=BMT167714567.3,Phases=1,LineCode=tieSwitch1,Length=0.001,Units=km,switch=T !numEQ 247925
new line.CTR898087 bus1=BMT167715843.1,bus2=BMT167715933.1,Phases=1,LineCode=tieSwitch1,Length=0.001,Units=km,switch=T !numEQ 256177
new line.CTR911743 bus1=BMT170668799.1,bus2=BMT170668882.1,Phases=1,LineCode=tieSwitch1,Length=0.001,Units=km,switch=T !numEQ 278607
