2024_89_CemigReconfigurationCases/1_AlimsCemig/AOR04/AOR04SegmentosBT.dss
new line.10562742 bus1=BBT1723500.1.2.0,bus2=BBT2792687.1.2.0,Phases=2,Linecode=BT518_BT518_7_2_1,Length=0.000500000,Units=km
new line.11154291 bus1=BBT2928270.1.2.0,bus2=BBT2928277.1.2.0,Phases=2,Linecode=BT518_BT518_7_2_1,Length=0.000500000,Units=km
new line.11160535 bus1=BBT2930237.1.2.3.0,bus2=BBT2930244.1.2.3.0,Phases=3,Linecode=BT810_BT810_4_3_4,Length=0.038890000,Units=km
new line.11160542 bus1=BBT2930237.1.2.3.0,bus2=BBT3486156.1.2.3.0,Phases=3,Linecode=BT810_BT810_4_3_4,Length=0.041102000,Units=km
new line.11160563 bus1=BBT2930244.1.2.3.0,bus2=BBT2930251.1.2.3.0,Phases=3,Linecode=BT810_BT810_4_3_4,Length=0.035349000,Units=km
new line.11851771 bus1=BBT3705599.1.2.0,bus2=BBT3705606.1.2.0,Phases=2,Linecode=BT508_BT508_7_2_1,Length=0.000500000,Units=km
new line.12257428 bus1=BBT3248240.1.2.0,bus2=BBT3248247.1.2.0,Phases=2,Linecode=BT518_BT518_7_2_1,Length=0.000500000,Units=km
new line.12300408 bus1=BBT3263185.1.2.0,bus2=BBT3263192.1.2.0,Phases=2,Linecode=BT518_BT518_7_2_1,Length=0.000500000,Units=km
new line.12300702 bus1=BBT3263241.1.2.0,bus2=BBT3263248.1.2.0,Phases=2,Linecode=BT518_BT518_7_2_1,Length=0.000500000,Units=km
new line.13052453 bus1=BBT3486079.1.2.3.0,bus2=BBT158026374.1.2.3.0,Phases=3,Linecode=BT803_BT803_4_3_4,Length=0.037477000,Units=km
new line.13063233 bus1=BBT3553279.1.2.3.0,bus2=BBT1577018.1.2.3.0,Phases=3,Linecode=BT108_BT107_7_3_1,Length=0.021537000,Units=km
new line.13065403 bus1=BBT3554434.1.2.0,bus2=BBT3554441.1.2.0,Phases=2,Linecode=BT518_BT518_7_2_1,Length=0.000500000,Units=km
new line.13531400 bus1=BBT3746731.1.2.0,bus2=BBT3746738.1.2.0,Phases=2,Linecode=BT518_BT518_7_2_1,Length=0.000500000,Units=km
new line.14250643 bus1=BBT4025660.1.2.0,bus2=BBT4025667.1.2.0,Phases=2,Linecode=BT808_BT808_4_2_3,Length=0.048698000,Units=km
new line.14250692 bus1=BBT4025667.1.2.0,bus2=BBT4025674.1.2.0,Phases=2,Linecode=BT808_BT808_4_2_3,Length=0.043077000,Units=km
new line.14250818 bus1=BBT4025758.1.2.0,bus2=BBT4025765.1.2.0,Phases=2,Linecode=BT808_BT808_4_2_3,Length=0.063813000,Units=km
new line.14409991 bus1=BBT4383675.1.2.0,bus2=BBT4383682.1.2.0,Phases=2,Linecode=BT518_BT518_7_2_1,Length=0.000500000,Units=km
new line.14428135 bus1=BBT4145178.1.2.0,bus2=BBT4145185.1.2.0,Phases=2,Linecode=BT518_BT518_7_2_1,Length=0.000500000,Units=km
new line.14428443 bus1=BBT4145325.1.2.0,bus2=BBT4145332.1.2.0,Phases=2,Linecode=BT518_BT518_7_2_1,Length=0.000500000,Units=km
new line.14428632 bus1=BBT4145472.1.2.0,bus2=BBT4145479.1.2.0,Phases=2,Linecode=BT518_BT518_7_2_1,Length=0.000500000,Units=km
new line.14428660 bus1=BBT4145486.1.2.0,bus2=BBT4145493.1.2.0,Phases=2,Linecode=BT518_BT518_7_2_1,Length=0.000500000,Units=km
new line.14430424 bus1=BBT4146438.1.2.0,bus2=BBT4146445.1.2.0,Phases=2,Linecode=BT518_BT518_7_2_1,Length=0.000500000,Units=km
new line.14430746 bus1=BBT4146599.1.2.0,bus2=BBT4146606.1.2.0,Phases=2,Linecode=BT518_BT518_7_2_1,Length=0.000500000,Units=km
new line.14430753 bus1=BBT4146571.1.2.0,bus2=BBT4146578.1.2.0,Phases=2,Linecode=BT518_BT518_7_2_1,Length=0.000500000,Units=km
new line.14431579 bus1=BBT4147075.1.2.0,bus2=BBT4147082.1.2.0,Phases=2,Linecode=BT518_BT518_7_2_1,Length=0.000500000,Units=km
new line.14431726 bus1=BBT4147089.1.2.0,bus2=BBT4147096.1.2.0,Phases=2,Linecode=BT518_BT518_7_2_1,Length=0.000500000,Units=km
new line.14431908 bus1=BBT4147208.1.2.0,bus2=BBT4147215.1.2.0,Phases=2,Linecode=BT518_BT518_7_2_1,Length=0.000500000,Units=km
new line.14432209 bus1=BBT4147390.1.2.0,bus2=BBT4147397.1.2.0,Phases=2,Linecode=BT518_BT518_7_2_1,Length=0.000500000,Units=km
new line.14432636 bus1=BBT4147523.1.2.0,bus2=BBT4147530.1.2.0,Phases=2,Linecode=BT518_BT518_7_2_1,Length=0.000500000,Units=km
new line.14433245 bus1=BBT4148230.1.2.0,bus2=BBT4148237.1.2.0,Phases=2,Linecode=BT518_BT518_7_2_1,Length=0.000500000,Units=km
new line.14639696 bus1=BBT4339183.1.2.0,bus2=BBT4339190.1.2.0,Phases=2,Linecode=BT518_BT518_7_2_1,Length=0.000500000,Units=km
new line.14730283 bus1=BBT4550569.1.2.0,bus2=BBT4550576.1.2.0,Phases=2,Linecode=BT518_BT518_7_2_1,Length=0.000500000,Units=km
new line.14733650 bus1=BBT4442734.1.2.3.0,bus2=BBT4442741.1.2.3.0,Phases=3,Linecode=BT108_BT107_7_3_1,Length=0.010769000,Units=km
new line.14733657 bus1=BBT107407988.1.2.0,bus2=BBT4442874.1.2.0,Phases=2,Linecode=BT106_BT106_7_2_1,Length=0.019311000,Units=km
new line.14733664 bus1=BBT4442727.1.2.3.0,bus2=BBT4442734.1.2.3.0,Phases=3,Linecode=BT108_BT107_7_3_1,Length=0.036764000,Units=km
new line.14733734 bus1=BBT4442853.1.2.3.0,bus2=BBT4442860.1.2.3.0,Phases=3,Linecode=BT108_BT107_7_3_1,Length=0.034200000,Units=km
new line.14733748 bus1=BBT4442860.1.2.3.0,bus2=BBT4442867.1.2.3.0,Phases=3,Linecode=BT107_BT106_7_3_1,Length=0.034477000,Units=km
new line.14733783 bus1=BBT4442874.1.2.0,bus2=BBT4442881.1.2.0,Phases=2,Linecode=BT808_BT808_4_2_3,Length=0.025452000,Units=km
new line.14920893 bus1=BBT4771587.1.2.0,bus2=BBT4771594.1.2.0,Phases=2,Linecode=BT518_BT518_7_2_1,Length=0.000500000,Units=km
...